Version 4
SHEET 1 880 696
WIRE 224 48 192 48
WIRE 336 48 304 48
WIRE -512 80 -528 80
WIRE -320 80 -432 80
WIRE -192 80 -320 80
WIRE -528 112 -528 80
WIRE -192 112 -192 80
WIRE 64 112 -192 112
WIRE 192 112 192 48
WIRE 192 112 144 112
WIRE 192 160 192 112
WIRE 224 160 192 160
WIRE 336 176 336 48
WIRE 336 176 288 176
WIRE 496 176 336 176
WIRE 624 176 560 176
WIRE 224 192 192 192
WIRE 64 224 -192 224
WIRE 192 224 192 192
WIRE 192 224 144 224
WIRE 192 256 192 224
WIRE -512 272 -528 272
WIRE -320 272 -432 272
WIRE -192 272 -192 224
WIRE -192 272 -320 272
WIRE 624 272 624 256
WIRE -528 304 -528 272
WIRE -624 448 -640 448
WIRE -544 448 -624 448
WIRE -320 448 -320 352
WIRE -320 448 -352 448
WIRE -256 448 -320 448
WIRE -160 448 -192 448
WIRE -160 464 -160 448
WIRE -320 480 -320 448
WIRE -320 480 -352 480
WIRE -448 560 -448 528
WIRE -320 560 -448 560
FLAG 448 496 VCC
FLAG 448 576 0
FLAG 256 144 VCC
FLAG 256 208 0
FLAG -320 160 0
FLAG -528 112 0
FLAG -528 304 0
FLAG 192 336 0
FLAG 624 272 0
FLAG -624 448 VCC
FLAG -320 640 0
FLAG -160 464 0
SYMBOL voltage 448 480 R0
WINDOW 0 40 39 Left 2
WINDOW 3 40 69 Left 2
WINDOW 123 0 0 Left 0
WINDOW 39 0 0 Left 0
SYMATTR InstName V1
SYMATTR Value 3.3
SYMBOL res 160 208 R90
WINDOW 0 0 56 VBottom 2
WINDOW 3 32 56 VTop 2
SYMATTR InstName R1
SYMATTR Value 600
SYMBOL res 208 352 R180
WINDOW 0 36 76 Left 2
WINDOW 3 36 40 Left 2
SYMATTR InstName R2
SYMATTR Value 600
SYMBOL res 48 128 R270
WINDOW 0 32 56 VTop 2
WINDOW 3 0 56 VBottom 2
SYMATTR InstName R3
SYMATTR Value 600
SYMBOL res 208 64 R270
WINDOW 0 32 56 VTop 2
WINDOW 3 0 56 VBottom 2
SYMATTR InstName R4
SYMATTR Value 600
SYMBOL current -512 80 R270
WINDOW 0 32 40 VTop 2
WINDOW 3 -32 40 VBottom 2
WINDOW 123 0 0 Left 0
WINDOW 39 0 0 Left 0
SYMATTR InstName I1
SYMATTR Value SINE(10m 10m 100MEG 0 0 0)
SYMBOL current -512 272 R270
WINDOW 0 32 40 VTop 2
WINDOW 3 -32 40 VBottom 2
WINDOW 123 0 0 Left 0
WINDOW 39 0 0 Left 0
SYMATTR InstName I2
SYMATTR Value SINE(10m 10m 100MEG 0 0 180)
SYMBOL res -336 64 R0
SYMATTR InstName R6
SYMATTR Value 50
SYMBOL res -336 256 R0
SYMATTR InstName R7
SYMATTR Value 50
SYMBOL OpAmps\\UniversalOpAmp2 256 176 R0
SYMATTR InstName U2
SYMATTR Value2 Avol=1Meg GBW=400Meg Slew=1800Meg
SYMATTR SpiceLine Ilimit=75m Rail=0 Vos=0
SYMBOL cap 560 160 R90
WINDOW 0 0 32 VBottom 2
WINDOW 3 32 32 VTop 2
SYMATTR InstName C1
SYMATTR Value 200µ
SYMBOL res 608 160 R0
SYMATTR InstName R5
SYMATTR Value 50
SYMBOL res -336 464 R0
SYMATTR InstName R8
SYMATTR Value 5k
SYMBOL res -336 544 R0
SYMATTR InstName R9
SYMATTR Value 1k
SYMBOL LM317_TRANS -464 464 R0
SYMATTR InstName U3
SYMBOL cap -256 464 R270
WINDOW 0 32 32 VTop 2
WINDOW 3 0 32 VBottom 2
SYMATTR InstName C2
SYMATTR Value 10µ
TEXT 144 424 Left 2 !.tran 50n
